<?xml version="1.0" encoding="UTF-8"?>

<!-- generated on 2023-05-28 16:52:24 by Eclipse SUMO netedit Version 1.16.0
<configuration xmlns:xsi="http://www.w3.org/2001/XMLSchema-instance" xsi:noNamespaceSchemaLocation="http://sumo.dlr.de/xsd/netconvertConfiguration.xsd">

    <input>
        <route-files value="D:\iot_project.10.rou.xml"/>
        <sumo-net-file value="D:\iot_project.net.xml"/>
    </input>

    <output>
        <output-file value="D:\iot_project.net.xml"/>
    </output>

    <processing>
        <geometry.min-radius.fix.railways value="false"/>
        <geometry.max-grade.fix value="false"/>
        <offset.disable-normalization value="true"/>
        <lefthand value="1"/>
    </processing>

    <junctions>
        <no-internal-links value="false"/>
        <no-turnarounds value="true"/>
        <junctions.corner-detail value="5"/>
        <junctions.limit-turn-speed value="5.50"/>
        <rectangular-lane-cut value="0"/>
    </junctions>

    <pedestrian>
        <walkingareas value="1"/>
    </pedestrian>

</configuration>
-->

<net version="1.16" junctionCornerDetail="5" walkingareas="true" lefthand="true" limitTurnSpeed="5.50" xmlns:xsi="http://www.w3.org/2001/XMLSchema-instance" xsi:noNamespaceSchemaLocation="http://sumo.dlr.de/xsd/net_file.xsd">

    <location netOffset="0.00,0.00" convBoundary="-600.00,-150.00,100.00,300.00" origBoundary="-10000000000.000000,-10000000000.000000,10000000000.000000,10000000000.000000" projParameter="+proj=utm +zone=18 +datum=WGS84 +ellps=WGS84 +units=m"/>

    <edge id=":J0_0" function="internal">
        <lane id=":J0_0_0" index="0" speed="8.96" length="18.06" shape="-504.80,193.60 -504.10,198.50 -502.00,202.00 -498.50,204.10 -493.60,204.80"/>
        <lane id=":J0_0_1" index="1" speed="7.66" length="12.90" shape="-501.60,193.60 -501.10,197.10 -499.60,199.60 -497.10,201.10 -493.60,201.60"/>
    </edge>
    <edge id=":J0_2" function="internal">
        <lane id=":J0_2_0" index="0" speed="3.65" length="1.44" shape="-501.60,193.60 -500.80,194.80"/>
    </edge>
    <edge id=":J0_6" function="internal">
        <lane id=":J0_6_0" index="0" speed="3.65" length="3.23" shape="-500.80,194.80 -500.00,195.20 -499.20,194.80 -498.40,193.60"/>
    </edge>
    <edge id=":J0_3" function="internal">
        <lane id=":J0_3_0" index="0" speed="3.90" length="2.58" shape="-493.60,195.20 -494.30,195.10 -494.80,194.80 -495.10,194.30 -495.20,193.60"/>
        <lane id=":J0_3_1" index="1" speed="6.08" length="7.74" shape="-493.60,198.40 -495.70,198.10 -497.20,197.20 -498.10,195.70 -498.40,193.60"/>
    </edge>
    <edge id=":J0_5" function="internal">
        <lane id=":J0_5_0" index="0" speed="3.65" length="1.30" shape="-493.60,198.40 -494.68,199.12"/>
    </edge>
    <edge id=":J0_7" function="internal">
        <lane id=":J0_7_0" index="0" speed="3.65" length="3.37" shape="-494.68,199.12 -494.80,199.20 -495.20,200.00 -494.80,200.80 -493.60,201.60"/>
    </edge>
    <edge id=":J0_w0" function="walkingarea">
        <lane id=":J0_w0_0" index="0" allow="pedestrian" speed="2.78" length="9.99" width="3.20" shape="-506.40,193.60 -493.60,193.60 -493.60,206.40 -497.51,206.04 -500.71,204.98 -503.20,203.20 -504.98,200.71 -506.04,197.51"/>
    </edge>
    <edge id=":J1_w0" function="walkingarea">
        <lane id=":J1_w0_0" index="0" allow="pedestrian" speed="2.78" length="21.20" width="2.00" shape="-290.40,300.00 -288.40,300.00 -311.60,300.00 -309.60,300.00"/>
    </edge>
    <edge id=":J2_w0" function="walkingarea">
        <lane id=":J2_w0_0" index="0" allow="pedestrian" speed="2.78" length="16.00" width="3.20" shape="-300.00,-150.00 -309.60,-150.00 -290.40,-150.00 -300.00,-150.00"/>
    </edge>
    <edge id=":J3_w0" function="walkingarea">
        <lane id=":J3_w0_0" index="0" allow="pedestrian" speed="2.78" length="21.20" width="2.00" shape="100.00,-9.60 100.00,-11.60 100.00,11.60 100.00,9.60"/>
    </edge>
    <edge id=":J4_0" function="internal">
        <lane id=":J4_0_0" index="0" disallow="pedestrian" speed="7.68" length="9.42" shape="-308.00,-78.45 -308.35,-76.25 -309.39,-74.37 -311.13,-72.83 -313.57,-71.62"/>
    </edge>
    <edge id=":J4_1" function="internal">
        <lane id=":J4_1_0" index="0" disallow="pedestrian" speed="13.89" length="9.30" shape="-308.00,-78.45 -308.00,-69.15"/>
        <lane id=":J4_1_1" index="1" disallow="pedestrian" speed="13.89" length="9.30" shape="-304.80,-78.45 -304.80,-69.15"/>
        <lane id=":J4_1_2" index="2" disallow="pedestrian" speed="13.89" length="9.30" shape="-301.60,-78.45 -301.60,-69.15"/>
    </edge>
    <edge id=":J4_4" function="internal">
        <lane id=":J4_4_0" index="0" speed="3.65" length="1.44" shape="-301.60,-78.45 -300.80,-77.25"/>
    </edge>
    <edge id=":J4_10" function="internal">
        <lane id=":J4_10_0" index="0" speed="3.65" length="3.23" shape="-300.80,-77.25 -300.00,-76.85 -299.20,-77.25 -298.40,-78.45"/>
    </edge>
    <edge id=":J4_5" function="internal">
        <lane id=":J4_5_0" index="0" disallow="pedestrian" speed="13.89" length="9.30" shape="-292.00,-69.15 -292.00,-78.45"/>
        <lane id=":J4_5_1" index="1" disallow="pedestrian" speed="13.89" length="9.30" shape="-295.20,-69.15 -295.20,-78.45"/>
        <lane id=":J4_5_2" index="2" disallow="pedestrian" speed="13.89" length="9.30" shape="-298.40,-69.15 -298.40,-78.45"/>
    </edge>
    <edge id=":J4_8" function="internal">
        <lane id=":J4_8_0" index="0" disallow="pedestrian" speed="8.03" length="2.60" shape="-298.40,-69.15 -299.14,-71.65"/>
    </edge>
    <edge id=":J4_9" function="internal">
        <lane id=":J4_9_0" index="0" disallow="pedestrian" speed="3.65" length="1.44" shape="-298.40,-69.15 -299.20,-70.35"/>
    </edge>
    <edge id=":J4_11" function="internal">
        <lane id=":J4_11_0" index="0" disallow="pedestrian" speed="8.03" length="15.62" shape="-299.14,-71.65 -299.35,-72.36 -302.19,-73.85 -306.93,-73.60 -313.57,-71.62"/>
    </edge>
    <edge id=":J4_12" function="internal">
        <lane id=":J4_12_0" index="0" disallow="pedestrian" speed="3.65" length="3.23" shape="-299.20,-70.35 -300.00,-70.75 -300.80,-70.35 -301.60,-69.15"/>
    </edge>
    <edge id=":J4_w0" function="walkingarea">
        <lane id=":J4_w0_0" index="0" allow="pedestrian" speed="2.78" length="17.12" width="3.20" shape="-314.13,-73.12 -314.83,-74.99 -309.60,-78.45 -306.40,-78.45 -303.20,-78.45 -300.00,-78.45 -296.80,-78.45 -293.60,-78.45 -290.40,-78.45 -288.40,-69.15 -290.40,-69.15 -291.06,-72.83 -293.04,-75.31 -296.33,-76.58 -300.95,-76.63 -306.88,-75.48"/>
    </edge>
    <edge id=":J5_0" function="internal">
        <lane id=":J5_0_0" index="0" disallow="pedestrian" speed="7.65" length="12.86" shape="-308.00,185.10 -308.35,189.52 -309.40,192.68 -311.15,194.57 -313.60,195.20"/>
    </edge>
    <edge id=":J5_1" function="internal">
        <lane id=":J5_1_0" index="0" disallow="pedestrian" speed="13.89" length="23.30" shape="-308.00,185.10 -308.00,208.40"/>
        <lane id=":J5_1_1" index="1" disallow="pedestrian" speed="13.89" length="23.30" shape="-304.80,185.10 -304.80,208.40"/>
        <lane id=":J5_1_2" index="2" disallow="pedestrian" speed="13.89" length="23.30" shape="-301.60,185.10 -301.60,208.40"/>
    </edge>
    <edge id=":J5_4" function="internal">
        <lane id=":J5_4_0" index="0" allow="bus" speed="7.97" length="2.44" shape="-301.60,185.10 -300.86,187.43"/>
    </edge>
    <edge id=":J5_5" function="internal">
        <lane id=":J5_5_0" index="0" disallow="pedestrian" speed="3.65" length="1.44" shape="-301.60,185.10 -300.80,186.30"/>
    </edge>
    <edge id=":J5_16" function="internal">
        <lane id=":J5_16_0" index="0" allow="bus" speed="7.97" length="18.99" shape="-300.86,187.43 -300.03,190.00 -296.05,191.42 -290.74,190.04 -285.18,186.54"/>
    </edge>
    <edge id=":J5_17" function="internal">
        <lane id=":J5_17_0" index="0" disallow="pedestrian" speed="3.65" length="3.23" shape="-300.80,186.30 -300.00,186.70 -299.20,186.30 -298.40,185.10"/>
    </edge>
    <edge id=":J5_6" function="internal">
        <lane id=":J5_6_0" index="0" allow="bus" speed="13.89" length="23.57" shape="-292.00,208.40 -291.57,200.92 -290.30,194.78 -288.16,189.98 -285.18,186.54"/>
    </edge>
    <edge id=":J5_7" function="internal">
        <lane id=":J5_7_0" index="0" disallow="pedestrian" speed="13.89" length="23.30" shape="-292.00,208.40 -292.00,185.10"/>
        <lane id=":J5_7_1" index="1" disallow="pedestrian" speed="13.89" length="23.30" shape="-295.20,208.40 -295.20,185.10"/>
        <lane id=":J5_7_2" index="2" disallow="pedestrian" speed="13.89" length="23.30" shape="-298.40,208.40 -298.40,185.10"/>
    </edge>
    <edge id=":J5_10" function="internal">
        <lane id=":J5_10_0" index="0" disallow="pedestrian" speed="9.51" length="3.40" shape="-298.40,208.40 -299.12,205.08"/>
    </edge>
    <edge id=":J5_11" function="internal">
        <lane id=":J5_11_0" index="0" disallow="pedestrian" speed="3.65" length="1.44" shape="-298.40,208.40 -299.20,207.20"/>
    </edge>
    <edge id=":J5_18" function="internal">
        <lane id=":J5_18_0" index="0" disallow="pedestrian" speed="9.51" length="17.10" shape="-299.12,205.08 -299.35,204.03 -302.20,200.90 -306.95,199.03 -313.60,198.40"/>
    </edge>
    <edge id=":J5_19" function="internal">
        <lane id=":J5_19_0" index="0" disallow="pedestrian" speed="3.65" length="3.23" shape="-299.20,207.20 -300.00,206.80 -300.80,207.20 -301.60,208.40"/>
    </edge>
    <edge id=":J5_12" function="internal">
        <lane id=":J5_12_0" index="0" disallow="pedestrian" speed="5.99" length="7.49" shape="-313.60,204.80 -311.15,205.03 -309.40,205.70 -308.35,206.83 -308.00,208.40"/>
    </edge>
    <edge id=":J5_13" function="internal">
        <lane id=":J5_13_0" index="0" allow="bus" speed="13.89" length="34.28" shape="-313.60,204.80 -305.49,202.39 -297.10,196.85 -289.85,190.72 -285.18,186.54"/>
    </edge>
    <edge id=":J5_14" function="internal">
        <lane id=":J5_14_0" index="0" disallow="pedestrian" speed="11.08" length="28.16" shape="-313.60,201.60 -305.55,200.57 -299.80,197.48 -296.35,192.32 -295.20,185.10"/>
        <lane id=":J5_14_1" index="1" disallow="pedestrian" speed="10.57" length="25.57" shape="-313.60,201.60 -306.95,200.57 -302.20,197.48 -299.35,192.32 -298.40,185.10"/>
    </edge>
    <edge id=":J5_w0" function="walkingarea">
        <lane id=":J5_w0_0" index="0" allow="pedestrian" speed="2.78" length="13.60" width="3.20" shape="-309.60,208.40 -311.60,208.40 -313.60,206.40 -313.60,203.20 -313.60,200.00 -313.60,196.80 -313.60,193.60 -311.60,185.10 -309.60,185.10"/>
    </edge>
    <edge id=":J6_0" function="internal">
        <lane id=":J6_0_0" index="0" disallow="pedestrian" speed="6.24" length="8.23" shape="-308.00,-13.10 -308.32,-10.87 -309.27,-9.28 -310.87,-8.32 -313.10,-8.00"/>
    </edge>
    <edge id=":J6_1" function="internal">
        <lane id=":J6_1_0" index="0" disallow="pedestrian" speed="13.89" length="26.20" shape="-308.00,-13.10 -308.00,13.10"/>
        <lane id=":J6_1_1" index="1" disallow="pedestrian" speed="13.89" length="26.20" shape="-304.80,-13.10 -304.80,13.10"/>
        <lane id=":J6_1_2" index="2" disallow="pedestrian" speed="13.89" length="26.20" shape="-301.60,-13.10 -301.60,13.10"/>
    </edge>
    <edge id=":J6_4" function="internal">
        <lane id=":J6_4_0" index="0" disallow="pedestrian" speed="10.20" length="5.01" shape="-301.60,-13.10 -300.89,-8.14"/>
    </edge>
    <edge id=":J6_5" function="internal">
        <lane id=":J6_5_0" index="0" disallow="pedestrian" speed="3.65" length="1.44" shape="-301.60,-13.10 -300.80,-11.90"/>
    </edge>
    <edge id=":J6_24" function="internal">
        <lane id=":J6_24_0" index="0" disallow="pedestrian" speed="10.20" length="18.69" shape="-300.89,-8.14 -300.68,-6.67 -297.93,-2.08 -293.33,0.68 -286.90,1.60"/>
    </edge>
    <edge id=":J6_25" function="internal">
        <lane id=":J6_25_0" index="0" disallow="pedestrian" speed="3.65" length="3.23" shape="-300.80,-11.90 -300.00,-11.50 -299.20,-11.90 -298.40,-13.10"/>
    </edge>
    <edge id=":J6_6" function="internal">
        <lane id=":J6_6_0" index="0" disallow="pedestrian" speed="6.24" length="8.23" shape="-286.90,-8.00 -289.13,-8.32 -290.73,-9.27 -291.68,-10.87 -292.00,-13.10"/>
    </edge>
    <edge id=":J6_7" function="internal">
        <lane id=":J6_7_0" index="0" disallow="pedestrian" speed="13.89" length="26.20" shape="-286.90,-8.00 -313.10,-8.00"/>
        <lane id=":J6_7_1" index="1" disallow="pedestrian" speed="13.89" length="26.20" shape="-286.90,-4.80 -313.10,-4.80"/>
        <lane id=":J6_7_2" index="2" disallow="pedestrian" speed="13.89" length="26.20" shape="-286.90,-1.60 -313.10,-1.60"/>
    </edge>
    <edge id=":J6_10" function="internal">
        <lane id=":J6_10_0" index="0" disallow="pedestrian" speed="10.20" length="5.01" shape="-286.90,-1.60 -291.86,-0.89"/>
    </edge>
    <edge id=":J6_11" function="internal">
        <lane id=":J6_11_0" index="0" disallow="pedestrian" speed="3.65" length="1.44" shape="-286.90,-1.60 -288.10,-0.80"/>
    </edge>
    <edge id=":J6_26" function="internal">
        <lane id=":J6_26_0" index="0" disallow="pedestrian" speed="10.20" length="18.69" shape="-291.86,-0.89 -293.33,-0.68 -297.93,2.07 -300.68,6.67 -301.60,13.10"/>
    </edge>
    <edge id=":J6_27" function="internal">
        <lane id=":J6_27_0" index="0" disallow="pedestrian" speed="3.65" length="3.23" shape="-288.10,-0.80 -288.50,-0.00 -288.10,0.80 -286.90,1.60"/>
    </edge>
    <edge id=":J6_12" function="internal">
        <lane id=":J6_12_0" index="0" disallow="pedestrian" speed="6.24" length="8.23" shape="-292.00,13.10 -291.68,10.87 -290.73,9.27 -289.13,8.32 -286.90,8.00"/>
    </edge>
    <edge id=":J6_13" function="internal">
        <lane id=":J6_13_0" index="0" disallow="pedestrian" speed="13.89" length="26.20" shape="-292.00,13.10 -292.00,-13.10"/>
        <lane id=":J6_13_1" index="1" disallow="pedestrian" speed="13.89" length="26.20" shape="-295.20,13.10 -295.20,-13.10"/>
        <lane id=":J6_13_2" index="2" disallow="pedestrian" speed="13.89" length="26.20" shape="-298.40,13.10 -298.40,-13.10"/>
    </edge>
    <edge id=":J6_16" function="internal">
        <lane id=":J6_16_0" index="0" disallow="pedestrian" speed="10.20" length="5.01" shape="-298.40,13.10 -299.11,8.14"/>
    </edge>
    <edge id=":J6_17" function="internal">
        <lane id=":J6_17_0" index="0" disallow="pedestrian" speed="3.65" length="1.44" shape="-298.40,13.10 -299.20,11.90"/>
    </edge>
    <edge id=":J6_28" function="internal">
        <lane id=":J6_28_0" index="0" disallow="pedestrian" speed="10.20" length="18.69" shape="-299.11,8.14 -299.32,6.67 -302.07,2.07 -306.67,-0.68 -313.10,-1.60"/>
    </edge>
    <edge id=":J6_29" function="internal">
        <lane id=":J6_29_0" index="0" disallow="pedestrian" speed="3.65" length="3.23" shape="-299.20,11.90 -300.00,11.50 -300.80,11.90 -301.60,13.10"/>
    </edge>
    <edge id=":J6_18" function="internal">
        <lane id=":J6_18_0" index="0" disallow="pedestrian" speed="6.24" length="8.23" shape="-313.10,8.00 -310.87,8.32 -309.27,9.27 -308.32,10.87 -308.00,13.10"/>
    </edge>
    <edge id=":J6_19" function="internal">
        <lane id=":J6_19_0" index="0" disallow="pedestrian" speed="13.89" length="26.20" shape="-313.10,8.00 -286.90,8.00"/>
        <lane id=":J6_19_1" index="1" disallow="pedestrian" speed="13.89" length="26.20" shape="-313.10,4.80 -286.90,4.80"/>
        <lane id=":J6_19_2" index="2" disallow="pedestrian" speed="13.89" length="26.20" shape="-313.10,1.60 -286.90,1.60"/>
    </edge>
    <edge id=":J6_22" function="internal">
        <lane id=":J6_22_0" index="0" disallow="pedestrian" speed="10.20" length="5.01" shape="-313.10,1.60 -308.14,0.89"/>
    </edge>
    <edge id=":J6_23" function="internal">
        <lane id=":J6_23_0" index="0" disallow="pedestrian" speed="3.65" length="1.44" shape="-313.10,1.60 -311.90,0.80"/>
    </edge>
    <edge id=":J6_30" function="internal">
        <lane id=":J6_30_0" index="0" disallow="pedestrian" speed="10.20" length="18.69" shape="-308.14,0.89 -306.67,0.68 -302.07,-2.07 -299.32,-6.67 -298.40,-13.10"/>
    </edge>
    <edge id=":J6_31" function="internal">
        <lane id=":J6_31_0" index="0" disallow="pedestrian" speed="3.65" length="3.23" shape="-311.90,0.80 -311.50,-0.00 -311.90,-0.80 -313.10,-1.60"/>
    </edge>
    <edge id=":J6_w0" function="walkingarea">
        <lane id=":J6_w0_0" index="0" allow="pedestrian" speed="2.78" length="3.54" width="2.00" shape="-313.10,-9.60 -313.10,-11.60 -311.60,-13.10 -309.60,-13.10 -309.70,-12.03 -309.99,-11.16 -310.48,-10.47 -311.16,-9.99 -312.03,-9.70"/>
    </edge>
    <edge id=":J6_w1" function="walkingarea">
        <lane id=":J6_w1_0" index="0" allow="pedestrian" speed="2.78" length="3.54" width="2.00" shape="-290.40,-13.10 -288.40,-13.10 -286.90,-11.60 -286.90,-9.60 -287.97,-9.70 -288.84,-9.99 -289.52,-10.47 -290.01,-11.16 -290.30,-12.03"/>
    </edge>
    <edge id=":J6_w2" function="walkingarea">
        <lane id=":J6_w2_0" index="0" allow="pedestrian" speed="2.78" length="3.54" width="2.00" shape="-286.90,9.60 -286.90,11.60 -288.40,13.10 -290.40,13.10 -290.30,12.03 -290.01,11.16 -289.52,10.47 -288.84,9.99 -287.97,9.70"/>
    </edge>
    <edge id=":J6_w3" function="walkingarea">
        <lane id=":J6_w3_0" index="0" allow="pedestrian" speed="2.78" length="3.54" width="2.00" shape="-309.60,13.10 -311.60,13.10 -313.10,11.60 -313.10,9.60 -312.03,9.70 -311.16,9.99 -310.48,10.47 -309.99,11.16 -309.70,12.03"/>
    </edge>
    <edge id=":J7_0" function="internal">
        <lane id=":J7_0_0" index="0" disallow="pedestrian" speed="13.89" length="9.14" shape="-11.34,-8.00 -20.48,-8.00"/>
        <lane id=":J7_0_1" index="1" disallow="pedestrian" speed="13.89" length="9.14" shape="-11.34,-4.80 -20.48,-4.80"/>
        <lane id=":J7_0_2" index="2" disallow="pedestrian" speed="13.89" length="9.14" shape="-11.34,-1.60 -20.48,-1.60"/>
    </edge>
    <edge id=":J7_3" function="internal">
        <lane id=":J7_3_0" index="0" disallow="pedestrian" speed="3.65" length="1.44" shape="-11.34,-1.60 -12.54,-0.80"/>
    </edge>
    <edge id=":J7_11" function="internal">
        <lane id=":J7_11_0" index="0" disallow="pedestrian" speed="3.65" length="3.23" shape="-12.54,-0.80 -12.94,-0.00 -12.54,0.80 -11.34,1.60"/>
    </edge>
    <edge id=":J7_4" function="internal">
        <lane id=":J7_4_0" index="0" allow="bus" speed="13.89" length="10.30" shape="-19.42,13.75 -17.07,11.75 -15.66,9.90 -14.10,8.53 -11.34,8.00"/>
    </edge>
    <edge id=":J7_5" function="internal">
        <lane id=":J7_5_0" index="0" allow="bus" speed="7.99" length="25.14" shape="-19.42,13.75 -14.43,8.57 -12.78,2.45 -14.72,-2.66 -20.48,-4.80"/>
        <lane id=":J7_5_1" index="1" allow="bus" speed="7.32" length="20.82" shape="-19.42,13.75 -15.31,9.46 -14.01,4.39 -15.68,0.17 -20.48,-1.60"/>
    </edge>
    <edge id=":J7_7" function="internal">
        <lane id=":J7_7_0" index="0" disallow="pedestrian" speed="13.89" length="9.14" shape="-20.48,8.00 -11.34,8.00"/>
        <lane id=":J7_7_1" index="1" disallow="pedestrian" speed="13.89" length="9.14" shape="-20.48,4.80 -11.34,4.80"/>
        <lane id=":J7_7_2" index="2" disallow="pedestrian" speed="13.89" length="9.14" shape="-20.48,1.60 -11.34,1.60"/>
    </edge>
    <edge id=":J7_10" function="internal">
        <lane id=":J7_10_0" index="0" disallow="pedestrian" speed="3.65" length="1.44" shape="-20.48,1.60 -19.28,0.80"/>
    </edge>
    <edge id=":J7_12" function="internal">
        <lane id=":J7_12_0" index="0" disallow="pedestrian" speed="3.65" length="3.23" shape="-19.28,0.80 -18.88,0.00 -19.28,-0.80 -20.48,-1.60"/>
    </edge>
    <edge id=":J7_w0" function="walkingarea">
        <lane id=":J7_w0_0" index="0" allow="pedestrian" speed="2.78" length="9.14" width="2.00" shape="-20.48,-9.60 -20.48,-11.60 -11.34,-11.60 -11.34,-9.60"/>
    </edge>
    <edge id=":J8_0" function="internal">
        <lane id=":J8_0_0" index="0" disallow="pedestrian" speed="13.89" length="41.22" shape="-467.76,-13.80 -475.95,-11.41 -485.96,-9.58 -497.04,-8.41 -508.40,-8.00"/>
    </edge>
    <edge id=":J8_1" function="internal">
        <lane id=":J8_1_0" index="0" disallow="pedestrian" speed="13.89" length="45.65" shape="-467.76,-13.80 -482.56,-7.33 -493.14,-0.60 -499.48,6.37 -501.60,13.60"/>
    </edge>
    <edge id=":J8_2" function="internal">
        <lane id=":J8_2_0" index="0" disallow="pedestrian" speed="7.13" length="21.27" shape="-467.76,-13.80 -472.24,-10.13 -473.63,-4.97 -471.92,-0.38 -467.07,1.60"/>
    </edge>
    <edge id=":J8_3" function="internal">
        <lane id=":J8_3_0" index="0" disallow="pedestrian" speed="13.89" length="41.33" shape="-467.07,-8.00 -508.40,-8.00"/>
        <lane id=":J8_3_1" index="1" disallow="pedestrian" speed="13.89" length="41.33" shape="-467.07,-4.80 -508.40,-4.80"/>
        <lane id=":J8_3_2" index="2" disallow="pedestrian" speed="13.89" length="41.33" shape="-467.07,-1.60 -508.40,-1.60"/>
    </edge>
    <edge id=":J8_6" function="internal">
        <lane id=":J8_6_0" index="0" disallow="pedestrian" speed="13.34" length="11.18" shape="-467.07,-1.60 -478.23,-0.90"/>
    </edge>
    <edge id=":J8_7" function="internal">
        <lane id=":J8_7_0" index="0" disallow="pedestrian" speed="3.65" length="1.44" shape="-467.07,-1.60 -468.27,-0.80"/>
    </edge>
    <edge id=":J8_16" function="internal">
        <lane id=":J8_16_0" index="0" disallow="pedestrian" speed="13.34" length="30.14" shape="-478.23,-0.90 -482.18,-0.65 -492.97,2.20 -499.44,6.95 -501.60,13.60"/>
    </edge>
    <edge id=":J8_17" function="internal">
        <lane id=":J8_17_0" index="0" disallow="pedestrian" speed="3.65" length="3.23" shape="-468.27,-0.80 -468.67,-0.00 -468.27,0.80 -467.07,1.60"/>
    </edge>
    <edge id=":J8_8" function="internal">
        <lane id=":J8_8_0" index="0" disallow="pedestrian" speed="11.37" length="29.74" shape="-495.20,13.60 -493.44,11.15 -488.17,9.40 -479.38,8.35 -467.07,8.00"/>
        <lane id=":J8_8_1" index="1" disallow="pedestrian" speed="12.21" length="34.46" shape="-498.40,13.60 -496.44,9.75 -490.57,7.00 -480.77,5.35 -467.07,4.80"/>
    </edge>
    <edge id=":J8_10" function="internal">
        <lane id=":J8_10_0" index="0" speed="9.51" length="1.72" shape="-498.40,13.60 -498.56,11.89"/>
    </edge>
    <edge id=":J8_18" function="internal">
        <lane id=":J8_18_0" index="0" speed="9.51" length="18.77" shape="-498.56,11.89 -499.02,6.95 -500.90,2.20 -504.02,-0.65 -508.40,-1.60"/>
    </edge>
    <edge id=":J8_11" function="internal">
        <lane id=":J8_11_0" index="0" speed="5.99" length="7.49" shape="-508.40,8.00 -506.83,8.35 -505.70,9.40 -505.02,11.15 -504.80,13.60"/>
    </edge>
    <edge id=":J8_12" function="internal">
        <lane id=":J8_12_0" index="0" disallow="pedestrian" speed="13.89" length="41.33" shape="-508.40,8.00 -467.07,8.00"/>
        <lane id=":J8_12_1" index="1" disallow="pedestrian" speed="13.89" length="41.33" shape="-508.40,4.80 -467.07,4.80"/>
        <lane id=":J8_12_2" index="2" disallow="pedestrian" speed="13.89" length="41.33" shape="-508.40,1.60 -467.07,1.60"/>
    </edge>
    <edge id=":J8_15" function="internal">
        <lane id=":J8_15_0" index="0" speed="3.65" length="1.44" shape="-508.40,1.60 -507.20,0.80"/>
    </edge>
    <edge id=":J8_19" function="internal">
        <lane id=":J8_19_0" index="0" speed="3.65" length="3.23" shape="-507.20,0.80 -506.80,-0.00 -507.20,-0.80 -508.40,-1.60"/>
    </edge>
    <edge id=":J8_w0" function="walkingarea">
        <lane id=":J8_w0_0" index="0" allow="pedestrian" speed="2.78" length="29.83" width="3.20" shape="-467.07,9.60 -467.07,11.60 -493.60,13.60 -496.80,13.60 -500.00,13.60 -503.20,13.60 -506.40,13.60 -508.40,9.60 -508.40,6.40 -508.40,3.20 -508.40,0.00 -508.40,-3.20 -508.40,-6.40 -508.40,-9.60 -469.02,-17.17 -468.32,-15.30 -471.50,-12.44 -473.30,-7.55 -473.73,-1.76 -472.81,3.79 -470.59,7.96"/>
    </edge>
    <edge id=":J9_w0" function="walkingarea">
        <lane id=":J9_w0_0" index="0" allow="pedestrian" speed="2.78" length="16.00" width="3.20" shape="-600.00,-0.00 -600.00,9.60 -600.00,-9.60 -600.00,-0.00"/>
    </edge>

    <edge id="-E0" from="J8" to="J6" priority="-1" shape="-500.00,0.00 -400.00,0.00 -300.00,0.00">
        <lane id="-E0_0" index="0" allow="pedestrian" speed="13.89" length="153.97" width="2.00" shape="-467.07,10.60 -400.00,10.60 -313.10,10.60"/>
        <lane id="-E0_1" index="1" disallow="pedestrian" speed="13.89" length="153.97" shape="-467.07,8.00 -400.00,8.00 -313.10,8.00"/>
        <lane id="-E0_2" index="2" disallow="pedestrian" speed="13.89" length="153.97" shape="-467.07,4.80 -400.00,4.80 -313.10,4.80"/>
        <lane id="-E0_3" index="3" disallow="pedestrian" speed="13.89" length="153.97" shape="-467.07,1.60 -400.00,1.60 -313.10,1.60"/>
    </edge>
    <edge id="-E1" from="J0" to="J8" priority="-1">
        <lane id="-E1_0" index="0" speed="13.89" length="180.00" shape="-495.20,193.60 -495.20,13.60"/>
        <lane id="-E1_1" index="1" speed="13.89" length="180.00" shape="-498.40,193.60 -498.40,13.60"/>
    </edge>
    <edge id="-E11" from="J3" to="J7" priority="-1">
        <lane id="-E11_0" index="0" allow="pedestrian" speed="13.89" length="111.34" width="2.00" shape="100.00,-10.60 -11.34,-10.60"/>
        <lane id="-E11_1" index="1" disallow="pedestrian" speed="13.89" length="111.34" shape="100.00,-8.00 -11.34,-8.00"/>
        <lane id="-E11_2" index="2" disallow="pedestrian" speed="13.89" length="111.34" shape="100.00,-4.80 -11.34,-4.80"/>
        <lane id="-E11_3" index="3" disallow="pedestrian" speed="13.89" length="111.34" shape="100.00,-1.60 -11.34,-1.60"/>
    </edge>
    <edge id="-E12" from="J6" to="J4" priority="-1">
        <lane id="-E12_0" index="0" allow="pedestrian" speed="13.89" length="56.05" width="2.00" shape="-289.40,-13.10 -289.40,-69.15"/>
        <lane id="-E12_1" index="1" disallow="pedestrian" speed="13.89" length="56.05" shape="-292.00,-13.10 -292.00,-69.15"/>
        <lane id="-E12_2" index="2" disallow="pedestrian" speed="13.89" length="56.05" shape="-295.20,-13.10 -295.20,-69.15"/>
        <lane id="-E12_3" index="3" disallow="pedestrian" speed="13.89" length="56.05" shape="-298.40,-13.10 -298.40,-69.15"/>
    </edge>
    <edge id="-E13" from="J4" to="J2" priority="-1">
        <lane id="-E13_0" index="0" speed="13.89" length="71.55" shape="-292.00,-78.45 -292.00,-150.00"/>
        <lane id="-E13_1" index="1" speed="13.89" length="71.55" shape="-295.20,-78.45 -295.20,-150.00"/>
        <lane id="-E13_2" index="2" speed="13.89" length="71.55" shape="-298.40,-78.45 -298.40,-150.00"/>
    </edge>
    <edge id="-E2" from="J1" to="J5" priority="-1">
        <lane id="-E2_0" index="0" allow="pedestrian" speed="13.89" length="91.60" width="2.00" shape="-289.40,300.00 -289.40,208.40"/>
        <lane id="-E2_1" index="1" disallow="pedestrian" speed="13.89" length="91.60" shape="-292.00,300.00 -292.00,208.40"/>
        <lane id="-E2_2" index="2" disallow="pedestrian" speed="13.89" length="91.60" shape="-295.20,300.00 -295.20,208.40"/>
        <lane id="-E2_3" index="3" disallow="pedestrian" speed="13.89" length="91.60" shape="-298.40,300.00 -298.40,208.40"/>
    </edge>
    <edge id="-E3" from="J6" to="J5" priority="-1">
        <lane id="-E3_0" index="0" allow="pedestrian" speed="13.89" length="172.00" width="2.00" shape="-310.60,13.10 -310.60,185.10"/>
        <lane id="-E3_1" index="1" disallow="pedestrian" speed="13.89" length="172.00" shape="-308.00,13.10 -308.00,185.10"/>
        <lane id="-E3_2" index="2" disallow="pedestrian" speed="13.89" length="172.00" shape="-304.80,13.10 -304.80,185.10"/>
        <lane id="-E3_3" index="3" disallow="pedestrian" speed="13.89" length="172.00" shape="-301.60,13.10 -301.60,185.10"/>
    </edge>
    <edge id="-E4" from="J7" to="J6" priority="-1">
        <lane id="-E4_0" index="0" allow="pedestrian" speed="13.89" length="266.42" width="2.00" shape="-20.48,-10.60 -286.90,-10.60"/>
        <lane id="-E4_1" index="1" disallow="pedestrian" speed="13.89" length="266.42" shape="-20.48,-8.00 -286.90,-8.00"/>
        <lane id="-E4_2" index="2" disallow="pedestrian" speed="13.89" length="266.42" shape="-20.48,-4.80 -286.90,-4.80"/>
        <lane id="-E4_3" index="3" disallow="pedestrian" speed="13.89" length="266.42" shape="-20.48,-1.60 -286.90,-1.60"/>
    </edge>
    <edge id="-E6" from="J9" to="J8" priority="-1">
        <lane id="-E6_0" index="0" speed="13.89" length="91.60" shape="-600.00,8.00 -508.40,8.00"/>
        <lane id="-E6_1" index="1" speed="13.89" length="91.60" shape="-600.00,4.80 -508.40,4.80"/>
        <lane id="-E6_2" index="2" speed="13.89" length="91.60" shape="-600.00,1.60 -508.40,1.60"/>
    </edge>
    <edge id="-E8" from="J5" to="J0" priority="-1">
        <lane id="-E8_0" index="0" speed="13.89" length="180.00" shape="-313.60,195.20 -493.60,195.20"/>
        <lane id="-E8_1" index="1" speed="13.89" length="180.00" shape="-313.60,198.40 -493.60,198.40"/>
    </edge>
    <edge id="E0" from="J6" to="J8" priority="-1">
        <lane id="E0_0" index="0" allow="pedestrian" speed="13.89" length="153.97" width="2.00" shape="-313.10,-10.60 -467.07,-10.60"/>
        <lane id="E0_1" index="1" disallow="pedestrian" speed="13.89" length="153.97" shape="-313.10,-8.00 -467.07,-8.00"/>
        <lane id="E0_2" index="2" disallow="pedestrian" speed="13.89" length="153.97" shape="-313.10,-4.80 -467.07,-4.80"/>
        <lane id="E0_3" index="3" disallow="pedestrian" speed="13.89" length="153.97" shape="-313.10,-1.60 -467.07,-1.60"/>
    </edge>
    <edge id="E1" from="J8" to="J0" priority="-1">
        <lane id="E1_0" index="0" speed="13.89" length="180.00" shape="-504.80,13.60 -504.80,193.60"/>
        <lane id="E1_1" index="1" speed="13.89" length="180.00" shape="-501.60,13.60 -501.60,193.60"/>
    </edge>
    <edge id="E10" from="J4" to="J8" priority="-1">