<?xml version="1.0" encoding="UTF-8"?>

<!-- generated on 2023-06-03 19:58:13 by Eclipse SUMO sumo Version 1.16.0
-->

<configuration xmlns:xsi="http://www.w3.org/2001/XMLSchema-instance" xsi:noNamespaceSchemaLocation="http://sumo.dlr.de/xsd/sumoConfiguration.xsd">

    <input>
        <net-file value="iot_project.net.xml"/>
        <route-files value="iot_project.10.rou.xml"/>
    </input>

</configuration>
